/*--------------------------------*- C++ -*----------------------------------*\
| =========                 |                                                 |
| \\      /  F ield         | OpenFOAM: The Open Source CFD Toolbox           |
|  \\    /   O peration     | Version:  v2412                                 |
|   \\  /    A nd           | Website:  www.openfoam.com                      |
|    \\/     M anipulation  |                                                 |
\*---------------------------------------------------------------------------*/
FoamFile
{
    version     2.0;
    format      ascii;
    class       dictionary;
    object      blockMeshDict;
}
// * * * * * * * * * * * * * * * * * * * * * * * * * * * * * * * * * * * * * //

scale   1;

vertices
(
    (-50 -100 -200) // 0
    (550 -100 -200) // 1
    (550 200 -200) // 2
    (-50 200 -200) // 3

    (-50 -100 200) // 4
    (550 -100 200) // 5
    (550 200 200) // 6
    (-50 200 200) // 7
);

blocks
(
    hex (0 1 2 3 4 5 6 7) (120 60 80) simpleGrading (1 1 1)
);

edges
(
);

boundary
(
    left
    {
        type patch;
        faces
        (
            (0 4 7 3)
        );
    }
    right
    {
        type patch;
        faces
        (
            (1 2 6 5)
        );
    }
    bottom
    {
        type wall;
        faces
        (
            (0 1 5 4)
        );
    }
    top
    {
        type wall;
        faces
        (
            (3 7 6 2)
        );
    }
    front
    {
        type wall;
        faces
        (
            (4 5 6 7)
        );
    }
    back
    {
        type wall;
        faces
        (
            (0 3 2 1)
        );
    }
);

mergePatchPairs
(
);


// ************************************************************************* //
